data/ENWL/enwl_4wire/network_18/Feeder_5/LineCode.txt
! Subset of available target linecodes, which are closest to the original ones in terms of positive sequence impedance
! --------------------------------------------------------------------------------------------------------------------------------------------------------------------------------------------------------------------------------------------------------------------------------------------------------------------------------------------
! original name: BS 5467 1997 table 10 35 (50 Hz)
New LineCode.LC3 nphases=4 Units=km
~ Rmatrix=(0.7710898110209621 0.2465698110209621 0.2460118110209621 0.24656681102096212 | 0.2465698110209621 0.7711468110209622 0.2466218110209621 0.24601281102096212 | 0.2460118110209621 0.2466218110209621 0.7711938110209621 0.24661881102096211 | 0.24656681102096212 0.24601281102096212 0.24661881102096211 0.7711408110209621)
~ Xmatrix=(0.7078895114426766 0.6383435114426766 0.6141895114426766 0.6383375114426767 | 0.6383435114426766 0.7080435114426766 0.6384825114426766 0.6141955114426767 | 0.6141895114426766 0.6384825114426766 0.7081705114426766 0.6384705114426766 | 0.6383375114426767 0.6141955114426767 0.6384705114426766 0.7080275114426766)
~ Cmatrix=(0.0 0.0 0.0 0.0 | 0.0 0.0 0.0 0.0 | 0.0 0.0 0.0 0.0 | 0.0 0.0 0.0 0.0)

! original name: BS 6480 1988 table 17 Cu 120 (50 Hz)
New LineCode.LC5 nphases=4 Units=km
~ Rmatrix=(0.75589946100395 0.59603846100395 0.59085046100395 0.59604046100395 | 0.59603846100395 0.75590046100395 0.5960414610039501 0.59084946100395 | 0.59085046100395 0.5960414610039501 0.75590646100395 0.59604446100395 | 0.59604046100395 0.59084946100395 0.59604446100395 0.75590446100395)
~ Xmatrix=(0.39846989035248354 0.33204889035248353 0.30294389035248354 0.33204889035248353 | 0.33204889035248353 0.3984688903524835 0.33204889035248353 0.30294389035248354 | 0.30294389035248354 0.33204889035248353 0.3984688903524835 0.33204889035248353 | 0.33204889035248353 0.30294389035248354 0.33204889035248353 0.3984688903524835)
~ Cmatrix=(0.0 0.0 0.0 0.0 | 0.0 0.0 0.0 0.0 | 0.0 0.0 0.0 0.0 | 0.0 0.0 0.0 0.0)

! original name: BS 6480 1988 table 17 Cu 16 (50 Hz)
New LineCode.LC6 nphases=4 Units=km
~ Rmatrix=(2.275110332819354 1.1225363328193543 1.1217103328193543 1.1225373328193542 | 1.1225363328193543 2.275110332819354 1.1225363328193543 1.1217103328193543 | 1.1217103328193543 1.1225363328193543 2.275111332819354 1.1225373328193542 | 1.1225373328193542 1.1217103328193543 1.1225373328193542 2.275111332819354)
~ Xmatrix=(1.046570816522671 0.962102816522671 0.932128816522671 0.9621038165226711 | 0.962102816522671 1.046571816522671 0.962102816522671 0.932128816522671 | 0.932128816522671 0.962102816522671 1.046573816522671 0.962102816522671 | 0.9621038165226711 0.932128816522671 0.962102816522671 1.046576816522671)
~ Cmatrix=(0.0 0.0 0.0 0.0 | 0.0 0.0 0.0 0.0 | 0.0 0.0 0.0 0.0 | 0.0 0.0 0.0 0.0)
! --------------------------------------------------------------------------------------------------------------------------------------------------------------------------------------------------------------------------------------------------------------------------------------------------------------------------------------------